CSEE-VS/VC.DAT
(POWERFLOW,CASEID=TEST,PROJECT=TEST300)
/P_INPUT_LIST,FULL\
/P_OUTPUT_LIST,FULL\
/RPT_SORT=ZONE\
/P_ANALYSIS_RPT,LEVEL=4\
/NEW_BASE,FILE=TEST300.bse\
/PF_MAP,FILE=TEST300.MAP\
/MVA_BASE=100\
/TOLERANCE,AIPOWER=0.0001,Q=0.0001\
/SOL_ITER,DECOUPLED=4,CURRENT=0,NEWTON=30\
/NETWORK_DATA\






...直流1数据



BS    B21     525                 700.                   1.0
B     B13     525.                700.
L     B13     525. B05     525.1             .0001                   

BD    DP-01   210.      2 350.   5. 120.     5000.B21     525. 500.
BD    DP-02   199.      2 350.7.    120.     5000.B13     525. 500.
LD    DP-01   210.1DP-02   199.  50005.    800.        R800. 500. 15. 17.
T     B21     525. DP-01   210.  3000       .006              525. 210.4         T2-01
R     B21     525.1DP-01   210.  DP-01   210.7021948819 0
T     B13     525. DP-02   199.  3000       .006              525. 199.4         T2-02
R     B13     525.1DP-02   199.  DP-02   199.688.5484.5 0

BD    DN-01   210.      2 290.   5. 120.     5000.B21     525.
BD    DN-02   199.      2 290.7.    120.     5000.B13     525.
LD    DN-01   210.1DN-02   199.  50005.    785.37      R800. 500. 15. 17.
T     B21     525. DN-01   210.  3000       .006              525. 210.4         T2-03
R     B21     525.1DN-01   210.  DN-01   210.7021948819 0
T     B13     525. DN-02   199.  3000       .006              525. 199.4         T2-04
R     B13     525.1DN-02   199.  DN-02   199.688.5484.5 0



                  
..........................................................................................  
.调相机

.BQ    SC08-01  20.2R                            300.-150.1.0
.T     B08     525. SC08-01  20.1 360. .00031  .023             525.  20.

.BQ    SC05-01  20.2R                            300.-150.1.0
.BQ    SC05-02  20.2R                            300.-150.1.0
.T     B18     525. SC05-01  20.1 360. .00031  .023             525.  20.
.T     B18     525. SC05-02  20.1 360. .00031  .023             525.  20.
.BQ    SC01-01  20.2R                            300.-150.1.0
.T     B01     525. SC01-01  20.1 360. .00031  .023             525.  20.

.BQ    SC10-01  20.2R                            300.-150.1.0
.T     B10     525. SC10-01  20.1 360. .00031  .023             525.  20.

 ..........................................................................................
.风1
B     WT19-01 .69 FH                  400.200.            1.0
B     WT19-02 .69 FH                  400.200.            1.0
B     WT19-03 .69 FH                  400.200.            1.0

B     B32     38.5FH              30.
B     B24     230.FH
B     B25     230.FH
B     B19     525.FH

B     B29     38.5FH              60.
B     T3-02     1.FH                                               

T     WT19-01 .69  B32     38.51 450.       .01389            0.69 38.5
T     WT19-02 .69  B32     38.51 450.       .01389            0.69 38.5
T     WT19-03 .69  B32     38.51 450.       .01389            0.69 38.5

T     B24     230. B32     38.51 300.         .035             230.38.5
T     B24     230. B32     38.52 300.         .035             230.38.5
T     B24     230. B32     38.53 300.         .035             230.38.5
T     B24     230. B32     38.54 300.         .035             230.38.5

L     B24     230. B25     230.1 1596 .00186.01307      .0241224.6        202105
L     B24     230. B25     230.2 1596 .00186.01307      .0241224.6        202105
L     B24     230. B25     230.3 1596 .00186.01307      .0241224.6        202105
L     B24     230. B25     230.4 1596 .00186.01307      .0241224.6        202105

T     B19     525. T3-02     1.  1500 .00005.01637             500.  1.                                  
T     B25     230. T3-02     1.  1500 .00004-.0019             230.  1.
T     B29     38.5 T3-02     1.  450.  .0003.01922            38.5   1.

L     B19     525. B11     525.1      .0007 .0098       .0184

  
......................................................................................................
.风2
B     WT01-01 .69 FH                  400.200.            1.0
B     WT01-02 .69 FH                  400.200.            1.0
B     WT01-03 .69 FH                  400.200.            1.0


B     B33     38.5FH               30.
B     B26     230.FH
B     B27     230.FH

B     B30     38.5FH              90.
B     T3-03     1.FH

T     WT01-01 .69  B33     38.51 450.       .01389            0.69 38.5
T     WT01-02 .69  B33     38.51 450.       .01389            0.69 38.5
T     WT01-03 .69  B33     38.51 450.       .01389            0.69 38.5

T     B26     230. B33     38.51 300.         .035             230.38.5  
T     B26     230. B33     38.52 300.         .035             230.38.5  
T     B26     230. B33     38.53 300.         .035             230.38.5  
T     B26     230. B33     38.54 300.         .035             230.38.5
                                           
L     B26     230. B27     230.1 1596 .00186.01307      .02412
L     B26     230. B27     230.2 1596 .00186.01307      .02412
L     B26     230. B27     230.3 1596 .00186.01307      .02412
L     B26     230. B27     230.4 1596 .00186.01307      .02412

T     B01     525. T3-03     1.  1500 .00005.01637             500.  1.                                  
T     B27     230. T3-03     1.  1500 .00004.0019              230.  1.
T     B30     38.5 T3-03     1.  450.  .0003.01922            38.5   1.


.......................................................................................................
.光
B     PV18-01 .4  FH                  400.200.            1.0
B     PV18-02 .4  FH                  400.200.            1.0
B     PV18-03 .4  FH                  400.200.            1.0


B     B31     38.5FH              30.
B     B22     230.FH
B     B23     230.FH
B     B18     525.FH              60.

B     B28     38.5FH
B     T3-01     1.FH                                             

T     PV18-01 0.4  B31     38.51 300.       .02167            0.4  38.5
T     PV18-01 0.4  B31     38.52 300.       .02167            0.4  38.5
T     PV18-02 0.4  B31     38.51 300.       .02167            0.4  38.5
T     PV18-02 0.4  B31     38.52 300.       .02167            0.4  38.5
T     PV18-03 0.4  B31     38.51 300.       .02167            0.4  38.5
T     PV18-03 0.4  B31     38.52 300.       .02167            0.4  38.5

T     B22     230. B31     38.51 300.         .035             230.38.5
T     B22     230. B31     38.52 300.         .035             230.38.5
T     B22     230. B31     38.53 300.         .035             230.38.5
T     B22     230. B31     38.54 300.         .035             230.38.5

L     B22     230. B23     230.1 1596 .00186.01307      .0241224.6        202105
L     B22     230. B23     230.2 1596 .00186.01307      .0241224.6        202105
L     B22     230. B23     230.3 1596 .00186.01307      .0241224.6        202105
L     B22     230. B23     230.4 1596 .00186.01307      .0241224.6        202105

T     B18     525. T3-01     1.  1500 .00005.01637             500.  1.                                        
T     B23     230. T3-01     1.  1500 .00004-.0019             230.  1.
T     B28     38.5 T3-01     1.  450.  .0003.01922            38.5   1.

L     B18     525. B06     525.1      .0003 .0038       .0184
.........................................................................................................
.火电
       
BS    TP14-01 20. FH                  660.360. 300. -150.1.0
B     B14     525.FH
T     TP14-01  20. B14     525.  750. .00026.02671              20. 525.


BQ    TP15-01 20. FH                  660 400. 300. -150.1.0 
B     B15     525.FH
T     TP15-01  20. B15     525.  750. .00026.02671              20. 525.

  
BQ    TP16-01 20. FH                  660 300. 300. -150.1.0 
B     B16     525.FH
T     TP16-01  20. B16     525.  750. .00028.03331              20. 525.   


BQ    TP17-01 20. FH                  660.400. 300. -150.1.0
B     B17     525.FH
T     TP17-01  20. B17     525.  750. .00028.03331              20. 525.   
                                          

L     B14     525. B06     525.1      .00012.00163      .00306
L     B15     525. B07     525.1      .00009.00134      .00251
L     B16     525. B09     525.1      .00012.00163      .00306
L     B17     525. B12     525.1      .0001 .0002       .0001



.......................................................................................................
.主网节点及线路
B     B01     525.FH                                  
B     B02     525.FH                                  
B     B03     525.FH                                  
B     B04     525.FH                                                                                        
B     B05     525.FH                    
B     B06     525.FH                  
B     B07     525.FH                                  
B     B08     525.FH                  
B     B09     525.FH                                  
B     B10     525.FH                                  
B     B11     525.FH                                  
B     B12     525.FH                                                                      


L     B06     525. B05     525.1      .00027.00377      .00210                 
L     B07     525. B10     525.1      .00081.0085       .00321             
L     B04     525. B03     525.1      .00089.00103      .00129                              
                              
L     B04     525. B07     525.1      .00076.0091       .004                                                                                                                                                                                                                                                                                                                             
L     B05     525. B08     525.1      .00028.00356      .0014                 
L     B05     525. B03     525.1      .0005 .0073       .0045 
L     B05     525. B03     525.2      .0005 .0073       .0045            
L     B08     525. B11     525.1      .0004 .0076       .0045                 
L     B08     525. B09     525.1      .00019.00270      .0017                               
L     B08     525. B06     525.1      .00019.00267      .0019                 
L     B03     525. B02     525.1      .00052.00448      .0021
L     B04     525. B02     525.1      .00097.00602      .00578                            
L     B09     525. B06     525.1      .0004 .0061       .0084                               
L     B02     525. B01     525.1      .00042.00912      .00615
L     B04     525. B01     525.1      .00037.00422      .00327       
L     B12     525. B10     525.1      .00090.00107      .00157
L     B12     525. B11     525.1      .00009.00634      .00351                

..................................................................................................

.负荷及三卷变
.B1
B     B34     230.FH356. 123.                      
B     B35     37.                 160.

.B2
B     B36     230.FH408. 149.        
B     B37     37.                 160.

.B3              
B     B38     230.FH339. 122.   
B     B39     37.                 160.

.B4                 
B     B40     230.FH452. 165           
B     B41     37.                 160.     

.B5                                                                     
B     B42     230.FH506. 162.      
B     B43     37.                 160.

.B6
B     B44     230.FH475. 154.     
B     B45     37.                 150.

.B7
B     B46     230.FH457. 157.          
B     B47     37.                 180.

.B8             
B     B48     230.FH470. 160.     
B     B49     37.                 180.

.B9
B     B50     230.FH399. 115.           
B     B51     37.                 150.

.B10           
B     B52     230.FH509. 166.        
B     B53     37.                 180.

.B11               
B     B54     230.FH427. 142.        
B     B55     37.                 160.

.B12              
B     B56     230.FH107. 32.         
B     B57     37.                 60.                              

B     T3-04   1.0
B     T3-05   1.0
B     T3-06   1.0
B     T3-07   1.0
B     T3-08   1.0
B     T3-09   1.0
B     T3-10   1.0
B     T3-11   1.0
B     T3-12   1.0
B     T3-13   1.0
B     T3-14   1.0
B     T3-15   1.0




T     T3-04     1. B01     525.  1000 .00005 .0157               1. 525.    
T     T3-04     1. B34     230.  1000 .00005-00158               1.230.
T     T3-04     1. B35     37.   360. .00021.02668               1.37.

T     T3-05     1. B02     525.  1000 .00005 .0157               1. 525.    
T     T3-05     1. B36     230.  1000 .00005-00158               1.230.
T     T3-05     1. B37     37.   360. .00021.02668               1.37.

T     T3-06     1. B03     525.  1000 .00005 .0157               1. 525.    
T     T3-06     1. B38     230.  1000 .00005-00158               1.230.
T     T3-06     1. B39     37.   360. .00021.02668               1.37.

T     T3-07     1. B04     525.  1000 .00005 .0157               1. 525.    
T     T3-07     1. B40     230.  1000 .00005-00158               1.230.
T     T3-07     1. B41     37.   360. .00021.02668               1.37.

T     T3-08     1. B05     525.  1000 .00005 .0157               1. 525.    
T     T3-08     1. B42     230.  1000 .00005-00158               1.230.
T     T3-08     1. B43     37.   360. .00021.02668               1.37.

T     T3-09     1. B06     525.  1000 .00005 .0157               1. 525.    
T     T3-09     1. B44     230.  1000 .00005-00158               1.230.
T     T3-09     1. B45     37.   360. .00021.02668               1.37.

T     T3-10     1. B07     525.  1000 .00005 .0157               1. 525.    
T     T3-10     1. B46     230.  1000 .00005-00158               1.230.
T     T3-10     1. B47     37.   360. .00021.02668               1.37.

T     T3-11     1. B08     525.  1000 .00005 .0157               1. 525.    
T     T3-11     1. B48     230.  1000 .00005-00158               1.230.
T     T3-11     1. B49     37.   360. .00021.02668               1.37.

T     T3-12     1. B09     525.  1000 .00005 .0157               1. 525.    
T     T3-12     1. B50     230.  1000 .00005-00158               1.230.
T     T3-12     1. B51     37.   360. .00021.02668               1.37.

T     T3-13     1. B10     525.  1000 .00005 .0157               1. 525.    
T     T3-13     1. B52     230.  1000 .00005-00158               1.230.
T     T3-13     1. B53     37.   360. .00021.02668               1.37.

T     T3-14     1. B11     525.  1000 .00005 .0157               1. 525.    
T     T3-14     1. B54     230.  1000 .00005-00158               1.230.
T     T3-14     1. B55     37.   360. .00021.02668               1.37.

T     T3-15     1. B12     525.  1000 .00005 .0157               1. 525.    
T     T3-15     1. B56     230.  1000 .00005-00158               1.230.
T     T3-15     1. B57     37.   360. .00021.02668               1.37.


.



(END)
